[TITLE]
;;Project Title/Notes

[OPTIONS]
;;Option             Value
FLOW_UNITS           CFS
INFILTRATION         MODIFIED_GREEN_AMPT
FLOW_ROUTING         DYNWAVE
LINK_OFFSETS         DEPTH
MIN_SLOPE            1
ALLOW_PONDING        NO
SKIP_STEADY_STATE    NO

START_DATE           08/31/2020
START_TIME           18:00:00
REPORT_START_DATE    08/31/2020
REPORT_START_TIME    18:00:00
END_DATE             09/04/2020
END_TIME             18:00:00
SWEEP_START          01/01
SWEEP_END            12/31
DRY_DAYS             5
REPORT_STEP          00:02:00
WET_STEP             00:05:00
DRY_STEP             24:00:00
ROUTING_STEP         5
RULE_STEP            00:00:00

INERTIAL_DAMPING     PARTIAL
NORMAL_FLOW_LIMITED  BOTH
FORCE_MAIN_EQUATION  H-W
VARIABLE_STEP        0.75
LENGTHENING_STEP     0
MIN_SURFAREA         12.566
MAX_TRIALS           8
HEAD_TOLERANCE       0.005
SYS_FLOW_TOL         5
LAT_FLOW_TOL         5
MINIMUM_STEP         0.5
THREADS              2
IGNORE_QUALITY       YES

[EVAPORATION]
;;Data Source    Parameters
;;-------------- ----------------
CONSTANT         0.0
DRY_ONLY         NO

[RAINGAGES]
;;Name           Format    Interval SCF      Source    
;;-------------- --------- -------- -------- ----------
0                INTENSITY 0:05     1.0      TIMESERIES 0               
1                INTENSITY 0:05     1.0      TIMESERIES 1               
2                INTENSITY 0:05     1.0      TIMESERIES 2               
3                INTENSITY 0:05     1.0      TIMESERIES 3               
4                INTENSITY 0:05     1.0      TIMESERIES 4        
5                INTENSITY 0:05     1.0      TIMESERIES 5           
no_rain          INTENSITY 0:06     1.0      TIMESERIES no_rain         

[SUBCATCHMENTS]
;;Name           Rain Gage        Outlet           Area     %Imperv  Width    %Slope   CurbLen  SnowPack        
;;-------------- ---------------- ---------------- -------- -------- -------- -------- -------- ----------------
S10              3                E133475          0.287    90.501   88.547   2.927    0                        
S100             3                F138001          0.1983   100      65.634   1.15     0                        
S101             3                F138007          0.0389   100      13.42    0.786    0                        
S102             3                F134230          0.0325   84.794   22.485   2.087    0                        
S103             3                F138004          0.0876   100      64.454   0.793    0                        
S104             3                F133428          0.1688   74.634   80.438   3.177    0                        
S105             3                F137013          0.238    100      100.419  0.796    0                        
S106             3                UN12             0.1039   23.118   45.845   4.275    0                        
S106_1           3                E134261          0.6126   65.949   149.871  3.754    0                        
S106_2           3                E134261          0.6881   29.739   118.94   4.082    0                        
S106_3           3                E143355          0.3234   87.579   84.619   4.324    0                        
S106_4           3                E143355          0.5327   96.054   76.538   2.597    0                        
S107             3                E134262          0.3753   51.352   87.208   5.5      0                        
S108             3                F137014          0.0823   100      40.632   1.03     0                        
S109             5                F138015          0.2382   6.489    115.01   1.877    0                        
S109_1           5                F1306017         0.735    33.092   353.505  5.802    0                        
S109_2           5                F1306016         0.1568   72.108   103.808  2.597    0                        
S11              3                F1306013         0.5901   97.381   153.113  3.131    0                        
S110             3                F137009          0.5193   98.568   126.847  1.073    0                        
S111             3                F137011          0.1438   100      63.12    0.947    0                        
S112             4                F147008          0.5333   79.101   93.359   2.986    0                        
S112_3           4                F1409017         0.3008   62.488   78.138   5.313    0                        
S112_4           4                F143640          0.1765   59.616   93.094   3.139    0                        
S113             3                E134219          0.5978   100      70.035   2.99     0                        
S114             3                F137010          0.0481   100      35.432   0.794    0                        
S115             3                F134112          0.5506   88.48    97.778   1.554    0                        
S116             2                E143754          0.232    98.157   101.802  0.69     0                        
S116_1           5                F1306022         0.2562   48.152   81.298   1.642    0                        
S116_2           3                F133459          2.8625   93.737   246.982  1.317    0                        
S116_3           3                F133459          0.2393   86.205   58.09    2.315    0                        
S116_4           0                E1520537         0.0974   80.084   47.677   2.064    0                        
S116_5           0                E1520536         0.0867   86.731   43.059   3.085    0                        
S117             3                UN78             0.1424   69.761   58.687   3.585    0                        
S118             3                F1302002         0.0468   83.54    40.885   6.616    0                        
S119             5                F1306023         0.2684   54.093   125.231  2.09     0                        
S12              3                UN17             0.8248   82.057   188.172  2.856    0                        
S120             3                F138009          0.3232   100      120.93   1.29     0                        
S121             4                F143657          1.3401   60.167   182.463  3.189    0                        
S121_1           4                F143653          0.0205   100      15.496   2.111    0                        
S121_3           4                F143641          0.3045   53.709   118.464  3.813    0                        
S122             3                F134101          0.2264   29.747   93.677   1.591    0                        
S122_1           3                F13002000        0.2514   79.659   75.017   2.894    0                        
S122_2           3                E135220          0.189    89.41    125.026  3.384    0                        
S123             3                F138002          0.1249   100      96.374   1.229    0                        
S124             3                UN44             0.0184   99.005   20.683   10.453   0                        
S125             3                F143623          0.5783   6.863    153.093  3.384    0                        
S125_1           5                F132690          0.1382   73.766   71.375   2.119    0                        
S125_3           5                F13269           0.3543   68.986   126.944  2.437    0                        
S126             3                UN32             1.3086   52.304   209.398  2.558    0                        
S127             0                E143751          0.2108   98.28    132.938  1.334    0                        
S128             3                E1437196         0.28     97.906   112.665  1.999    0                        
S128_2           3                UN80             1.2832   36.255   151.276  1.637    0                        
S129             2                E143798          0.6705   73.125   161.608  2.2      0                        
S129_2           3                F138014          0.1616   95.596   96.503   1.453    0                        
S13              3                UN18             0.7253   89.215   178.759  2.166    0                        
S130             4                F144006          0.119    58.849   52.674   4.412    0                        
S130_1           4                F147014          0.3654   53.412   68.534   2.361    0                        
S130_2           4                F147010          0.0955   35.28    36.054   3.277    0                        
S131             2                E143795          0.2277   97.276   125.23   1.795    0                        
S132             3                E134213          0.7043   95.067   156.484  3.607    0                        
S133             3                F134124          0.9995   45.302   249.657  3.496    0                        
S134             3                E143357          1.0808   85.973   116.946  2.875    0                        
S134_1           3                E134008          0.2901   6.034    112.077  1.75     0                        
S134_2           3                E134007          0.4964   23.209   122.838  2.276    0                        
S135             3                F1302001         0.3574   84.007   92.608   3.038    0                        
S136             3                F143573          0.4181   6.349    92.175   3.473    0                        
S137             3                E134263          0.078    38.382   44.681   3.443    0                        
S138             2                E143791          0.7461   99.661   142.066  1.023    0                        
S139             2                E143787          0.0906   95.254   33.182   2.508    0                        
S139_1           5                F1306020         0.2341   70.812   127.702  1.789    0                        
S14              3                F133454          1.7786   84.197   139.465  1.643    0                        
S140             3                E143393          0.8656   33.346   181.62   4.038    0                        
S141             3                F143570          0.171    8.394    112.907  3.382    0                        
S141_1           5                F13263           0.3416   77.324   105.208  2.311    0                        
S142             3                F143564          0.091    14.962   53.95    3.11     0                        
S142_1           3                F143564          0.0313   63.035   23.859   1.957    0                        
S142_3           3                F143565          0.0773   0        46.319   3.097    0                        
S143             3                E134265          0.303    69.475   140.869  4.533    0                        
S144             3                F134118          9.7819   9.959    751.385  2.949    0                        
S145             3                F138013          0.3859   90.768   166.896  1.969    0                        
S146             3                E134264          0.0526   78.042   63.335   3.581    0                        
S147             3                E139000          0.0279   96.592   45.856   1.957    0                        
S148             3                F143555          0.3389   55.53    104.896  3.013    0                        
S148_1           3                F143561          0.1392   28.543   70.238   3.582    0                        
S148_3           3                F143560          0.1285   44.472   68.328   3.517    0                        
S148_4           3                F143562          0.1871   27.625   85.493   3.882    0                        
S148_5           3                F143577          0.2314   41.851   69.526   3.785    0                        
S149             3                E143378          0.0207   100      19.225   3.21     0                        
S15              3                UN26             0.7958   98.343   130.508  0.85     0                        
S15_1            3                UN20             0.1367   100      42.442   1.052    0                        
S15_2            3                F133466          0.6571   93.976   152.368  2.045    0                        
S150             3                F138008          0.3454   89.724   150.873  2.459    0                        
S151             3                F143567          0.1203   14.776   54.522   3.308    0                        
S151_4           5                F1306019         0.2223   100      91.529   1.314    0                        
S151_5           5                F1306018         0.2615   81.064   76.429   1.843    0                        
S152             3                E143361          0.0964   100      82.036   2.364    0                        
S153             3                E143350          0.0881   66.503   45.231   2.928    0                        
S153_1           3                E133420          0.0676   7.856    13.214   2.14     0                        
S153_2           3                E133420          0.7965   49.272   145.079  2.401    0                        
S154             2                E144050          0.8017   77.339   109.919  4.812    0                        
S154_2           3                E133407          1.3921   8.803    144.54   2.733    0                        
S154_3           3                E133412          1.0378   89.554   114.394  2.739    0                        
S154_4           3                E133411          0.4772   41.531   109.251  2.502    0                        
S155             3                F134105          0.3307   52.721   83.972   2.707    0                        
S156             2                F147144          0.3682   91.475   83.491   3.547    0                        
S156_1           3                UN52             0.0634   0        56.49    1.855    0                        
S156_2           3                E133416          0.1499   33.902   79.275   3.47     0                        
S157             3                E1331939         0.0668   100      34.24    2.043    0                        
S157_1           3                E134290          0.2181   38.74    54.111   3.821    0                        
S157_10          3                E1331932         0.2376   97.432   54.432   3.488    0                        
S157_2           3                E134011          0.3824   75.271   111.77   2.942    0                        
S157_4           3                E1331936         0.028    99.982   37.884   2.286    0                        
S157_5           3                E1331934         1.3336   90.099   218.927  2.143    0                        
S157_6           3                E1331940         0.0973   99.767   52.852   2.617    0                        
S157_7           3                E1331932         0.2646   98.615   60.326   3.531    0                        
S157_9           3                UN47             0.3994   98.919   83.503   1.67     0                        
S158             3                F133422          0.1093   29.309   51.356   3.124    0                        
S159             3                E134259          0.2031   65.458   69.813   4.482    0                        
S16              3                E133476          0.5322   94.776   113.28   2.541    0                        
S160             4                F143666          0.1463   50.476   66.562   3.444    0                        
S160_2           3                E134204          0.4632   66.933   150.78   2.298    0                        
S161             3                F134138          0.1671   81.787   112.582  1.196    0                        
S162             2                E143783          0.0622   76.769   46.68    4.256    0                        
S162_1           2                E145300          0.0461   74.969   60.73    2.329    0                        
S163             3                E134010          0.1768   62.123   64.5     2.719    0                        
S164             3                E1331933         0.2253   97.743   37.202   2.594    0                        
S164_1           3                E134258          0.0491   72.819   41.922   6.399    0                        
S164_2           3                E134256          0.0341   75.48    28.105   4.796    0                        
S164_3           3                E134274          2.0848   59.058   281.561  3.209    0                        
S164_5           3                E134254          0.6047   57.862   195.731  5.733    0                        
S165             3                E134009          0.0183   0        37.626   4.405    0                        
S166             3                F134128          0.7681   14.918   152.064  3.753    0                        
S167             3                F138012          0.1381   46.163   109.38   6.29     0                        
S168             5                F13262           0.3326   61.818   79.711   2.668    0                        
S169             3                E133415          0.0714   44.883   60.262   3.476    0                        
S17              3                E134203          0.1465   92.566   137.992  2.647    0                        
S17_3            3                E134208          0.158    93.968   68.533   2.607    0                        
S170             3                E135000          0.0448   76.256   35.703   3.335    0                        
S171             5                F1306043         0.1456   96.362   76.459   2.704    0                        
S171_1           5                F13258           0.6531   64.672   146.172  2.891    0                        
S171_2           5                F13255           0.0999   89.561   43.115   2.246    0                        
S172             5                F13257           1.1487   57.855   131.801  3.151    0                        
S172_1           5                F13254           0.3619   59.814   99.457   3.414    0                        
S172_2           5                F13253           0.1967   62.022   66.855   4.651    0                        
S172_4           5                F13252           0.482    70.03    95.865   3.092    0                        
S173             3                E134289          0.3583   63.88    81.891   3.808    0                        
S174             3                E133414          0.0211   72.048   26.503   2.527    0                        
S175             3                F135999          0.3229   12.739   78.51    6.378    0                        
S176             3                E134291          0.2228   48.322   79.022   2.709    0                        
S177             3                E1331931         0.1131   86.601   86.097   7.327    0                        
S177_1           3                E1331937         0.4218   90.818   73.835   2.849    0                        
S177_3           3                E1331932         0.5595   96.268   102.638  2.135    0                        
S178             3                F134137          0.2861   0        94.899   5.446    0                        
S179             3                F143549          0.0617   64.259   43.527   2.484    0                        
S18              3                UN19             0.2008   89.531   62.084   1.868    0                        
S180             2                E143775          2.7056   88.898   309.583  2.992    0                        
S180_2           5                F134140          0.3057   0.675    116.024  7.283    0                        
S181             0                UN76             0.6383   86.926   154.4    1.053    0                        
S182             3                F143552          0.2324   32.027   334.637  4.883    0                        
S183             3                E134260          0.0205   14.569   25.138   7.249    0                        
S184             3                E134275          0.0343   56.167   29.827   3.922    0                        
S185             5                F13256           1.3545   59.384   131.204  3.374    0                        
S186             2                E143336          1.0706   86.287   147.584  4.236    0                        
S186_1           3                E133399          0.3013   99.24    93.89    2.293    0                        
S186_2           3                E133398          0.7673   59.881   158.96   3.446    0                        
S186_4           2                E144018          0.501    73.663   106.74   3.546    0                        
S186_7           2                E143336          0.0789   99.212   36.888   3.389    0                        
S187             5                F149004.2        2.1576   43.949   289.106  2.752    0                        
S187_1           3                E144272          1.2839   47.392   123.077  2.98     0                        
S187_2           3                E143381          1.1846   94.003   153.424  1.669    0                        
S188             0                E143971          0.2426   36.104   149.046  6.232    0                        
S188_1           5                F134146          0.2128   0        80.232   6.135    0                        
S189             5                F1409043         0.3526   64.742   135.464  3.369    0                        
S189_1           5                F1409045         0.7909   63.945   102.879  2.489    0                        
S189_2           5                F1409046         1.3795   31.392   156.724  2.578    0                        
S19              2                F143924          1.0034   56.558   194.065  2.673    0                        
S19_1            3                F1306011         1.0964   89.726   158.189  2.33     0                        
S19_2            3                F133434          0.6667   86.812   83.553   1.877    0                        
S19_3            3                F133429          0.2154   79.529   97.993   2.343    0                        
S19_4            3                F133431          0.6095   81.26    170.384  2.624    0                        
S190             2                E145006          0.8154   65.863   93.835   5.535    0                        
S190_1           3                E133404          0.1259   83.773   77.681   4.787    0                        
S190_2           3                E133402          0.4664   75.467   142.605  3.867    0                        
S190_3           2                T66              1.6194   77.868   200.527  5.304    0                        
S191             3                E1331935         0.8514   95.995   148.492  2.338    0                        
S192             3                F136001          0.172    3.984    122.344  2.513    0                        
S193             3                E134288          0.9394   54.041   186.731  3.608    0                        
S194             3                E1331924         0.64     58.771   122.118  5.963    0                        
S195             5                F13261           0.1793   82.27    99.215   1.858    0                        
S196             0                E143964          0.1568   43.909   106.732  5.112    0                        
S196_1           5                F135013          1.059    8.472    205.657  2.509    0                        
S196_2           0                E143274          0.1718   32.778   70.25    4.561    0                        
S196_3           3                F135014          0.2356   10.86    125.674  3.678    0                        
S197             5                F134148          0.3531   63.826   113.041  5.006    0                        
S198             0                E147013          1.0243   58.909   264.27   3.856    0                        
S198_1           5                F13259           0.1204   49.695   82.846   3.406    0                        
S198_2           5                F13260           0.1895   87.852   85.706   2.437    0                        
S199             5                F1306037         0.2457   28.123   119.99   2.291    0                        
S2               3                E133477          0.8379   83.59    93.243   2.401    0                        
S20              3                E133470          0.9334   86.669   203.918  1.923    0                        
S200             1                E144252          0.1626   65.333   76.39    2.894    0                        
S200_1           3                E133385          0.1009   57.912   57.667   8.028    0                        
S201             4                F144005          0.4066   55.771   124.067  3.88     0                        
S202             0                E145064          0.4695   66.302   137.2    2.393    0                        
S202_3           3                F143572          1.4378   3.241    266.1    2.348    0                        
S202_5           0                UN73             0.3955   99.419   77.08    0.601    0                        
S203             3                F136002          0.0644   28.6     49.655   2.081    0                        
S204             5                F1306035         0.427    59.924   168.215  3.296    0                        
S205             0                E1437164         0.1476   1.265    84.596   6.452    0                        
S205_1           5                F1306036         0.3694   61.24    132.895  2.921    0                        
S205_2           5                F1306040         0.0863   64.443   40.844   2.765    0                        
S206             0                E145062          0.1945   78.887   94.938   2.001    0                        
S207             0                E147008          0.2045   7.45     158.738  3.746    0                        
S208             3                E1331929         0.0224   77.21    20.897   1.673    0                        
S209             4                F143669          0.8139   73.055   102.118  4.092    0                        
S209_2           4                F143661          0.9104   54.183   124.863  5.537    0                        
S21              3                F133462          0.5895   97.226   120.887  1.849    0                        
S210             2                UN3              0.3809   58.873   66.903   6.739    0                        
S210_1           3                E1437195         0.1599   99.244   69.438   3.316    0                        
S210_2           3                E1331925         0.4356   98.36    108.395  2.025    0                        
S210_4           3                E1437192         0.0618   81.342   48.737   3.884    0                        
S210_5           3                E1437193         0.0821   18.712   34.726   6.021    0                        
S211             5                F1306034         0.5326   77.302   161.203  4.35     0                        
S212             2                E143736          0.186    89.805   40.227   3.805    0                        
S212_1           5                F1306042         0.0948   72.146   67.973   3.501    0                        
S213             4                F143668          2.9399   50.415   231.014  3.578    0                        
S213_1           3                E134287          0.0686   66.434   53.941   3.541    0                        
S213_2           3                E134286          1.1178   59.75    263.933  3.364    0                        
S214             5                F13250           0.54     57.74    157.604  2.892    0                        
S215             3                E133394          0.8326   37.554   181.838  3.463    0                        
S216             4                F143681.09       0.5811   86.963   186.801  1.673    0                        
S216_1           3                E144283          0.4381   64.076   100.241  3.267    0                        
S216_10          4                F143680          0.2538   99.735   67.266   1.504    0                        
S216_2           3                E134285          0.0926   46.383   59.838   4.511    0                        
S216_3           3                E134280          0.417    63.689   114.25   3.721    0                        
S216_4           4                F143672          0.2008   39.322   37.999   3.038    0                        
S216_5           3                E134281          1.2219   59.847   223.599  3.45     0                        
S216_6           3                E134250          0.6552   60.749   166.034  3.767    0                        
S216_7           3                E134250          0.0129   55.704   13.508   16.429   0                        
S216_8           4                F143689.13       0.2658   99.973   127.153  0.966    0                        
S216_9           4                F143679          0.1919   99.917   82.808   1.64     0                        
S217             5                F1306033         0.1285   74.255   47.042   5.048    0                        
S218             5                F143681          0.8222   36.261   139.592  3.907    0                        
S218_1           5                F143683          0.4824   70.338   181.445  2.511    0                        
S219             3                UN30             0.8647   75.122   143.053  0.905    0                        
S22              5                F13299           0.0334   76.507   32.56    5.935    0                        
S220             5                F1306044         0.6084   46.253   216.285  2.292    0                        