[TITLE]
;;Project Title/Notes

[OPTIONS]
;;Option             Value
FLOW_UNITS           CFS
INFILTRATION         MODIFIED_GREEN_AMPT
FLOW_ROUTING         DYNWAVE
LINK_OFFSETS         DEPTH
MIN_SLOPE            1
ALLOW_PONDING        NO
SKIP_STEADY_STATE    NO

START_DATE           08/31/2020
START_TIME           18:00:00
REPORT_START_DATE    08/31/2020
REPORT_START_TIME    18:00:00
END_DATE             09/04/2020
END_TIME             18:00:00
SWEEP_START          01/01
SWEEP_END            12/31
DRY_DAYS             5
REPORT_STEP          00:02:00
WET_STEP             00:05:00
DRY_STEP             24:00:00
ROUTING_STEP         1
RULE_STEP            00:00:00

INERTIAL_DAMPING     PARTIAL
NORMAL_FLOW_LIMITED  BOTH
FORCE_MAIN_EQUATION  H-W
VARIABLE_STEP        0.75
LENGTHENING_STEP     0
MIN_SURFAREA         12.566
MAX_TRIALS           8
HEAD_TOLERANCE       0.005
SYS_FLOW_TOL         5
LAT_FLOW_TOL         5
MINIMUM_STEP         0.5
THREADS              2
IGNORE_QUALITY       YES

[EVAPORATION]
;;Data Source    Parameters
;;-------------- ----------------
CONSTANT         0.0
DRY_ONLY         NO

[RAINGAGES]
;;Name           Format    Interval SCF      Source    
;;-------------- --------- -------- -------- ----------
rainfall         INTENSITY 0:02     1.0      TIMESERIES rainfall        

[SUBCATCHMENTS]
;;Name           Rain Gage        Outlet           Area     %Imperv  Width    %Slope   CurbLen  SnowPack        
;;-------------- ---------------- ---------------- -------- -------- -------- -------- -------- ----------------
S181             rainfall         UN76             0.6383   86.926   154.4    1.053    0                        
S202_5           rainfall         UN73             0.3955   99.419   77.08    0.601    0                        
S207             rainfall         E147008          0.2045   7.45     158.738  3.746    0                        
S520             rainfall         E143267          0.1109   40.274   53.55    4.447    0                        
S522             rainfall         11-0057          0.0968   57.644   51.839   6.966    0                        
S526_3           rainfall         UN71             0.4878   70.083   125.358  2.958    0                        
S542_1           rainfall         UN7              0.3807   85.246   110.452  1.364    0                        
S553_1           rainfall         E147009          0.0908   90.073   61.218   0.704    0                        
S561             rainfall         E143258          0.0307   22.251   28.975   3.62     0                        
S567             rainfall         E143257          0.0256   0        29.088   2.494    0                        
S572             rainfall         UN8              0.034    69.461   48.463   3.198    0                        
S575             rainfall         E143705          0.159    21.873   100.565  4.957    0                        
S578             rainfall         E143707          0.1608   12.086   104.057  3.494    0                        
S582             rainfall         E143701          0.0732   58.99    75.778   5.001    0                        
S584             rainfall         E143706          0.1406   52.077   93.167   3.523    0                        
S692             rainfall         E143707          0.1394   14.516   45.603   2.774    0                        
S693_2           rainfall         UN74             0.2113   75.299   55.715   1.95     0                        
S694_1           rainfall         E143268          0.178    22.903   109.733  5.295    0                        
S694_2           rainfall         E143270          0.364    63.499   85.879   4.21     0                        

[SUBAREAS]
;;Subcatchment   N-Imperv   N-Perv     S-Imperv   S-Perv     PctZero    RouteTo    PctRouted 
;;-------------- ---------- ---------- ---------- ---------- ---------- ---------- ----------
S181             0.011      0.16       0.075      0.156      25         OUTLET    
S202_5           0.011      0.15       0.075      0.15       25         OUTLET    
S207             0.011      0.176      0.075      0.165      25         OUTLET    
S520             0.011      0.16       0.075      0.156      25         OUTLET    
S522             0.011      0.15       0.075      0.15       25         OUTLET    
S526_3           0.011      0.157      0.075      0.154      25         OUTLET    
S542_1           0.011      0.151      0.075      0.15       25         OUTLET    
S553_1           0.011      0.151      0.075      0.151      25         OUTLET    
S561             0.011      0.198      0.075      0.177      25         OUTLET    
S567             0.011      0.177      0.075      0.165      25         OUTLET    
S572             0.011      0.15       0.075      0.15       25         OUTLET    
S575             0.011      0.167      0.075      0.16       25         OUTLET    
S578             0.011      0.15       0.075      0.15       25         OUTLET    
S582             0.011      0.15       0.075      0.15       25         OUTLET    
S584             0.011      0.203      0.075      0.179      25         OUTLET    
S692             0.011      0.159      0.075      0.155      25         OUTLET    
S693_2           0.011      0.15       0.075      0.15       25         OUTLET    
S694_1           0.011      0.15       0.075      0.15       25         OUTLET    
S694_2           0.011      0.155      0.075      0.153      25         OUTLET    

[INFILTRATION]
;;Subcatchment   Param1     Param2     Param3     Param4     Param5    
;;-------------- ---------- ---------- ---------- ---------- ----------
S181             4.33       0.43       0.368      0          0         
S202_5           4.33       0.43       0.368      0          0         
S207             4.33       0.43       0.368      0          0         
S520             4.33       0.43       0.368      0          0         
S522             4.33       0.43       0.368      0          0         
S526_3           4.33       0.43       0.368      0          0         
S542_1           4.33       0.43       0.368      0          0         
S553_1           4.33       0.43       0.368      0          0         
S561             4.33       0.43       0.368      0          0         
S567             4.33       0.43       0.368      0          0         
S572             4.33       0.43       0.368      0          0         
S575             4.33       0.43       0.368      0          0         
S578             4.33       0.43       0.368      0          0         
S582             4.33       0.43       0.368      0          0         
S584             4.33       0.43       0.368      0          0         
S692             4.33       0.43       0.368      0          0         
S693_2           4.33       0.43       0.368      0          0         
S694_1           4.33       0.43       0.368      0          0         
S694_2           4.33       0.43       0.368      0          0         

[JUNCTIONS]
;;Name           Elevation  MaxDepth   InitDepth  SurDepth   Aponded   
;;-------------- ---------- ---------- ---------- ---------- ----------
11-0057          -3.6       7.53       0          0          2800      
E143254          -3.51      6.516      0          0          2800      
E143257          -0.61      4.228      0          0          2800      
E143258          0.14       3.187      0          0          2800      
E143267          -3.67      7.288      0          0          2800      
E143268          0.03       3.028      0          0          2800      
E143269          -3         6.924      0          0          2800      
E143270          0.39       3.396      0          0          2800      
E143701          0.56       2.368      0          0          2800      
E143704          -1.14      4.426      0          0          2800      
E143705          0.44       3.557      0          0          2800      
E143706          1.2        2.797      0          0          2800      
E143707          -0.77      4.605      0          0          2800      
E143708          0.9        3.15       0          0          2800      
E1437150         -4.87      9.687      0          0          2800      
E1437162         -5.91      10.51      0          0          2800      
E147008          -5.7       10.082     0          0          2800      
E147009          -5.28      10.075     0          0          2800      
T222             -3.9       8.141      0          0          2800      
UN15             -4.87      9.677      0          0          2800      
UN68             -5.2       9.99       0          0          2800      
UN69             -3.8       7.84       0          0          2800      
UN7              -3.54      8.797      0          0          2800      
UN70             -3.7       8.164      0          0          2800      
UN71             -5.5       10.324     0          0          2800      
UN72             -5.7       9.543      0          0          2800      
UN73             -5.5       10.145     0          0          2800      
UN74             -4         9.194      0          0          2800      
UN75             -5         9.834      0          0          2800      
UN76             -2.5       6.945      0          0          2800      
UN8              0.31       2.52       0          0          2800      

[OUTFALLS]
;;Name           Elevation  Type       Stage Data       Gated    Route To        
;;-------------- ---------- ---------- ---------------- -------- ----------------
E143250          -3.54      TIMESERIES tide             NO                       
E147007          -3.54      TIMESERIES tide             NO                       

[CONDUITS]
;;Name           From Node        To Node          Length     Roughness  InOffset   OutOffset  InitFlow   MaxFlow   
;;-------------- ---------------- ---------------- ---------- ---------- ---------- ---------- ---------- ----------
1063             T222             UN68             27.271     0.013      0          0          0          0         
1064             UN69             T222             14.225     0.013      0          0          0          0         
1065             UN71             UN72             22.225     0.013      0          0          0          0         
1066             UN72             E1437162         8.298      0.013      0          0          0          0         
1067             UN73             UN72             18.975     0.013      0          0          0          0         
1069             UN74             UN75             43.451     0.013      0          0          0          0         
1070             UN76             E1437162         115.644    0.013      0          0          0          0         
1072             UN70             UN69             49.399     0.013      0          0          0          0         
1073             11-0057          UN70             7.799      0.013      0          0          0          0         
1074             E143267          UN70             34.066     0.013      0          0          0          0         
1077             E1437162         UN68             48.506     0.013      0          0          0          0         
1078             UN68             UN15             215.533    0.013      0          0          0          0         
1079             UN15             E1437150         7.803      0.013      0          0          0          0         
1080             E1437150         UN75             76.367     0.013      0          0          0          0         
1081             UN75             E147008          5.989      0.013      0          0          0          0         
1084             UN7              E143254          32.946     0.013      0          0          0          0         
1444             E143254          E143250          48.519     0.013      0          0          0          0         
1445             E147008          E147007          165.996    0.013      0          0          0          0         
368              E143270          E143269          74.931     0.013      0          0          0          0         
369              E143269          E143267          49.156     0.013      0          0          0          0         
370              E143268          E143267          85.98      0.013      0          0          0          0         
439              E143257          UN7              63.327     0.013      0          0          0          0         
440              UN8              E143254          45.86      0.013      0          0          0          0         
442              UN7              E143254          33.037     0.013      0          0          0          0         
466              E1437162         E1437150         271.775    0.013      0          0          0          0         
470              E1437150         E147008          80.506     0.013      0          0          0          0         
503              E143258          E143257          30.749     0.013      0          0          0          0         
509              E143701          E143254          46.781     0.013      0          0          0          0         
511              E143705          E143704          36.48      0.013      0          0          0          0         
512              E143704          UN7              69.566     0.013      0          0          0          0         
518              E143707          E143704          67.309     0.013      0          0          0          0         
519              E143708          E143707          41.806     0.013      0          0          0          0         
596              E143706          E143708          80.018     0.013      0          0          0          0         
597              E147009          UN15             4.577      0.013      0          0          0          0         

[XSECTIONS]
;;Link           Shape        Geom1            Geom2      Geom3      Geom4      Barrels    Culvert   
;;-------------- ------------ ---------------- ---------- ---------- ---------- ---------- ----------
1063             CIRCULAR     0.833            0          0          0          1                    
1064             CIRCULAR     0.667            0          0          0          1                    
1065             CIRCULAR     0.667            0          0          0          1                    
1066             CIRCULAR     0.667            0          0          0          1                    
1067             CIRCULAR     0.667            0          0          0          1                    
1069             CIRCULAR     0.5              0          0          0          1                    
1070             CIRCULAR     1.25             0          0          0          1                    
1072             CIRCULAR     1                0          0          0          1                    
1073             CIRCULAR     0.5              0          0          0          1                    
1074             CIRCULAR     1                0          0          0          1                    
1077             RECT_CLOSED  5.5              5.5        0          0          1                    
1078             RECT_CLOSED  5.5              5.5        0          0          1                    
1079             RECT_CLOSED  5.5              5.5        0          0          1                    
1080             RECT_CLOSED  5.5              5.5        0          0          1                    
1081             RECT_CLOSED  5.5              5.5        0          0          1                    
1084             RECT_CLOSED  5                5.5        0          0          1                    
1444             RECT_CLOSED  5                5.5        0          0          2                    
1445             RECT_CLOSED  5.5              5.5        0          0          2                    
368              CIRCULAR     1                0          0          0          1                    
369              CIRCULAR     1                0          0          0          1                    
370              CIRCULAR     1.25             0          0          0          1                    
439              CIRCULAR     1.25             0          0          0          1                    
440              CIRCULAR     1                0          0          0          1                    
442              RECT_CLOSED  5                5.5        0          0          1                    
466              RECT_CLOSED  5.5              5.5        0          0          1                    
470              RECT_CLOSED  5.5              5.5        0          0          1                    
503              CIRCULAR     1.25             0          0          0          1                    
509              CIRCULAR     1                0          0          0          1                    
511              CIRCULAR     1                0          0          0          1                    
512              CIRCULAR     1.25             0          0          0          1                    
518              CIRCULAR     1.25             0          0          0          1                    
519              CIRCULAR     1                0          0          0          1                    
596              CIRCULAR     1                0          0          0          1                    
597              CIRCULAR     0.667            0          0          0          1                    

[LOSSES]
;;Link           Kentry     Kexit      Kavg       Flap Gate  Seepage   
;;-------------- ---------- ---------- ---------- ---------- ----------

[POLLUTANTS]
;;Name           Units  Crain      Cgw        Crdii      Kdecay     SnowOnly   Co-Pollutant     Co-Frac    Cdwf       Cinit     
;;-------------- ------ ---------- ---------- ---------- ---------- ---------- ---------------- ---------- ---------- ----------
TSS              MG/L   0          0          0          0          NO         *                0.0        0          0         

[LANDUSES]
;;               Sweeping   Fraction   Last      
;;Name           Interval   Available  Swept     
;;-------------- ---------- ---------- ----------
Imperv           0          0          0         
Trees            0          0          0         
TurfGrass        0          0          0         
Water            0          0          0         

[COVERAGES]
;;Subcatchment   Land Use         Percent   
;;-------------- ---------------- ----------

[LOADINGS]
;;Subcatchment   Pollutant        Buildup   
;;-------------- ---------------- ----------

[BUILDUP]
;;Land Use       Pollutant        Function   Coeff1     Coeff2     Coeff3     Per Unit  
;;-------------- ---------------- ---------- ---------- ---------- ---------- ----------
Imperv           TSS              POW        150.16     0.364      1.54       AREA      
Trees            TSS              POW        9.22       0.133      0.87       AREA      
TurfGrass        TSS              POW        62.00      0.325      1.26       AREA      
Water            TSS              NONE       0.0        0.0        0.0        AREA      

[WASHOFF]
;;Land Use       Pollutant        Function   Coeff1     Coeff2     SweepRmvl  BmpRmvl   
;;-------------- ---------------- ---------- ---------- ---------- ---------- ----------
Imperv           TSS              EXP        6.97       1.57       0.0        0.0       
Trees            TSS              EXP        2.11       1.02       0.0        0.0       
TurfGrass        TSS              EXP        5.91       1.46       0.0        0.0       
Water            TSS              EMC        0.0        0.0        0.0        0.0       

[CURVES]
;;Name           Type       X-Value    Y-Value   
;;-------------- ---------- ---------- ----------
pump1            Pump3      11         7.2       
pump1                       12         6.9       
pump1                       13         6.5       
pump1                       14         6.1       
pump1                       15         5.7       
pump1                       16         5.2       
pump1                       17         4.7       
pump1                       18         4.1       
pump1                       19         3.6       
pump1                       20         2.9       
pump1                       21         2.3       
pump1                       22         1.5       
pump1                       23         0.8       
pump1                       24         0         

p1               Storage    0          5054.644  
p1                          1          7980.511  
p1                          2          10228.4336
p1                          3          10228.4336

p2               Storage    0          88504.97  
p2                          1          96205.71  
p2                          2          103386.578
p2                          3          112955.2  
p2                          4          126085.188
p2                          5          126085.188

p3               Storage    0          9968.893  
p3                          1          11805.3262
p3                          2          13631.2256
p3                          3          13631.2256

tide_08_16_18    Tidal      0          -0.902    
tide_08_16_18               1          -0.564    
tide_08_16_18               2          0.016     
tide_08_16_18               3          0.699     
tide_08_16_18               4          1.27      
tide_08_16_18               5          1.588     
tide_08_16_18               6          1.568     
tide_08_16_18               7          1.266     
tide_08_16_18               8          0.719     
tide_08_16_18               9          0.039     
tide_08_16_18               10         -0.574    
tide_08_16_18               11         -0.928    
tide_08_16_18               12         -0.981    
tide_08_16_18               13         -0.722    
tide_08_16_18               14         -0.171    
tide_08_16_18               15         0.535     
tide_08_16_18               16         1.204     
tide_08_16_18               17         1.683     
tide_08_16_18               18         1.801     
tide_08_16_18               19         1.611     
tide_08_16_18               20         1.214     
tide_08_16_18               21         0.597     
tide_08_16_18               22         -0.059    
tide_08_16_18               23         -0.584    

[TIMESERIES]
;;Name           Date       Time       Value     
;;-------------- ---------- ---------- ----------
;Rainfall (in/hr)
rainfall         08/31/2020 18:02:00   0         
rainfall         08/31/2020 18:04:00   0         
rainfall         08/31/2020 18:06:00   0         
rainfall         08/31/2020 18:08:00   0         
rainfall         08/31/2020 18:10:00   0         
rainfall         08/31/2020 18:12:00   0         
rainfall         08/31/2020 18:14:00   0         
rainfall         08/31/2020 18:16:00   0         
rainfall         08/31/2020 18:18:00   0         
rainfall         08/31/2020 18:20:00   0         
rainfall         08/31/2020 18:22:00   0         
rainfall         08/31/2020 18:24:00   0         
rainfall         08/31/2020 18:26:00   0         
rainfall         08/31/2020 18:28:00   0         
rainfall         08/31/2020 18:30:00   0         
rainfall         08/31/2020 18:32:00   0         
rainfall         08/31/2020 18:34:00   0         
rainfall         08/31/2020 18:36:00   0         
rainfall         08/31/2020 18:38:00   0         
rainfall         08/31/2020 18:40:00   0         
rainfall         08/31/2020 18:42:00   0         
rainfall         08/31/2020 18:44:00   0         
rainfall         08/31/2020 18:46:00   0         
rainfall         08/31/2020 18:48:00   0         
rainfall         08/31/2020 18:50:00   0         
rainfall         08/31/2020 18:52:00   0         
rainfall         08/31/2020 18:54:00   0         
rainfall         08/31/2020 18:56:00   0         
rainfall         08/31/2020 18:58:00   0         
rainfall         08/31/2020 19:00:00   0         
rainfall         08/31/2020 19:02:00   0         
rainfall         08/31/2020 19:04:00   0         
rainfall         08/31/2020 19:06:00   0         
rainfall         08/31/2020 19:08:00   0         
rainfall         08/31/2020 19:10:00   0         
rainfall         08/31/2020 19:12:00   0         
rainfall         08/31/2020 19:14:00   0         
rainfall         08/31/2020 19:16:00   0         
rainfall         08/31/2020 19:18:00   0         
rainfall         08/31/2020 19:20:00   0         
rainfall         08/31/2020 19:22:00   0         
rainfall         08/31/2020 19:24:00   0         
rainfall         08/31/2020 19:26:00   0         
rainfall         08/31/2020 19:28:00   0         
rainfall         08/31/2020 19:30:00   0         
rainfall         08/31/2020 19:32:00   0         
rainfall         08/31/2020 19:34:00   0         
rainfall         08/31/2020 19:36:00   0         
rainfall         08/31/2020 19:38:00   0         
rainfall         08/31/2020 19:40:00   0         
rainfall         08/31/2020 19:42:00   0         
rainfall         08/31/2020 19:44:00   0         
rainfall         08/31/2020 19:46:00   0         
rainfall         08/31/2020 19:48:00   0         
rainfall         08/31/2020 19:50:00   0         
rainfall         08/31/2020 19:52:00   0         
rainfall         08/31/2020 19:54:00   0         
rainfall         08/31/2020 19:56:00   0         
rainfall         08/31/2020 19:58:00   0         
rainfall         08/31/2020 20:00:00   0         
rainfall         08/31/2020 20:02:00   0         
rainfall         08/31/2020 20:04:00   0         
rainfall         08/31/2020 20:06:00   0         
rainfall         08/31/2020 20:08:00   0         
rainfall         08/31/2020 20:10:00   0         
rainfall         08/31/2020 20:12:00   0         
rainfall         08/31/2020 20:14:00   0         
rainfall         08/31/2020 20:16:00   0         
rainfall         08/31/2020 20:18:00   0         
rainfall         08/31/2020 20:20:00   0         
rainfall         08/31/2020 20:22:00   0         
rainfall         08/31/2020 20:24:00   0         
rainfall         08/31/2020 20:26:00   0         
rainfall         08/31/2020 20:28:00   0         
rainfall         08/31/2020 20:30:00   0         
rainfall         08/31/2020 20:32:00   0         
rainfall         08/31/2020 20:34:00   0         
rainfall         08/31/2020 20:36:00   0         
rainfall         08/31/2020 20:38:00   0         
rainfall         08/31/2020 20:40:00   0         
rainfall         08/31/2020 20:42:00   0         
rainfall         08/31/2020 20:44:00   0         
rainfall         08/31/2020 20:46:00   0         
rainfall         08/31/2020 20:48:00   0         
rainfall         08/31/2020 20:50:00   0         
rainfall         08/31/2020 20:52:00   0         
rainfall         08/31/2020 20:54:00   0         
rainfall         08/31/2020 20:56:00   0         
rainfall         08/31/2020 20:58:00   0         
rainfall         08/31/2020 21:00:00   0         
rainfall         08/31/2020 21:02:00   0         
rainfall         08/31/2020 21:04:00   0         
rainfall         08/31/2020 21:06:00   0         
rainfall         08/31/2020 21:08:00   0         
rainfall         08/31/2020 21:10:00   0         
rainfall         08/31/2020 21:12:00   0         
rainfall         08/31/2020 21:14:00   0         
rainfall         08/31/2020 21:16:00   0         
rainfall         08/31/2020 21:18:00   0         
rainfall         08/31/2020 21:20:00   0         
rainfall         08/31/2020 21:22:00   0         
rainfall         08/31/2020 21:24:00   0         
rainfall         08/31/2020 21:26:00   0         
rainfall         08/31/2020 21:28:00   0         
rainfall         08/31/2020 21:30:00   0         
rainfall         08/31/2020 21:32:00   0         
rainfall         08/31/2020 21:34:00   0         
rainfall         08/31/2020 21:36:00   0         
rainfall         08/31/2020 21:38:00   0         
rainfall         08/31/2020 21:40:00   0         
rainfall         08/31/2020 21:42:00   0         
rainfall         08/31/2020 21:44:00   0         
rainfall         08/31/2020 21:46:00   0         
rainfall         08/31/2020 21:48:00   0         
rainfall         08/31/2020 21:50:00   0         
rainfall         08/31/2020 21:52:00   0         
rainfall         08/31/2020 21:54:00   0         
rainfall         08/31/2020 21:56:00   0         
rainfall         08/31/2020 21:58:00   0         
rainfall         08/31/2020 22:00:00   0         
rainfall         08/31/2020 22:02:00   0         
rainfall         08/31/2020 22:04:00   0         
rainfall         08/31/2020 22:06:00   0         
rainfall         08/31/2020 22:08:00   0         
rainfall         08/31/2020 22:10:00   0         
rainfall         08/31/2020 22:12:00   0         
rainfall         08/31/2020 22:14:00   0         
rainfall         08/31/2020 22:16:00   0         
rainfall         08/31/2020 22:18:00   0         
rainfall         08/31/2020 22:20:00   0         
rainfall         08/31/2020 22:22:00   0         
rainfall         08/31/2020 22:24:00   0         
rainfall         08/31/2020 22:26:00   0         
rainfall         08/31/2020 22:28:00   0         
rainfall         08/31/2020 22:30:00   0         
rainfall         08/31/2020 22:32:00   0         
rainfall         08/31/2020 22:34:00   0         
rainfall         08/31/2020 22:36:00   0         
rainfall         08/31/2020 22:38:00   0         
rainfall         08/31/2020 22:40:00   0         
rainfall         08/31/2020 22:42:00   0         
rainfall         08/31/2020 22:44:00   0         
rainfall         08/31/2020 22:46:00   0         
rainfall         08/31/2020 22:48:00   0         
rainfall         08/31/2020 22:50:00   0         